/*--------------------------------*- C++ -*----------------------------------*\
  =========                 |
  \\      /  F ield         | OpenFOAM: The Open Source CFD Toolbox
   \\    /   O peration     | Website:  https://openfoam.org
    \\  /    A nd           | Version:  8
     \\/     M anipulation  |
\*---------------------------------------------------------------------------*/
FoamFile
{
    version     2.0;
    format      ascii;
    class       polyBoundaryMesh;
    location    "constant/polyMesh";
    object      boundary;
}
// * * * * * * * * * * * * * * * * * * * * * * * * * * * * * * * * * * * * * //

4
(
    frontandback
    {
        type            empty;
        nFaces          458752;
        startFace       457600;
    }
    inlet   
    {
        type            freestream;
        nFaces          512;
        startFace       916352;
    }
    airfoil
    {
        type            wall;
        nFaces          512;
        startFace       916864;
    }
    outlet 
    {
        type            freestream;
        nFaces          896;
        startFace       917376;
    }
)

// ************************************************************************* //
